[OPEN] Fri Aug 30 13:37:54 2013
[VERSION] PSI46V2 ROC/Wafer Tester V1.3 (23.08.2013)
[DTB]
Board id:    26
HW version:  DTB1.2
FW version:  1.1
SW version:  1.7
USB id:      DTB_WRECOM
MAC address: 40D85511801A
Hostname:    pixelDTB026
Comment:     
[CLOSE] Fri Aug 30 13:44:38 2013
[OPEN] Fri Aug 30 13:44:58 2013
[VERSION] PSI46V2 ROC/Wafer Tester V1.3 (23.08.2013)
[DTB]
Board id:    9
HW version:  DTB1.1
FW version:  1.1
SW version:  1.7
USB id:      DTB_WQSUMF
MAC address: 40D855118009
Hostname:    pixelDTB009
Comment:     Prototype 2 - compatible
[CLOSE] Fri Aug 30 13:49:07 2013
[OPEN] Fri Aug 30 13:49:10 2013
[VERSION] PSI46V2 ROC/Wafer Tester V1.3 (23.08.2013)
[DTB]
Board id:    61
HW version:  DTB1.2
FW version:  1.1
SW version:  1.7
USB id:      DTB_WRPUCV
MAC address: 40D85511803D
Hostname:    pixelDTB061
Comment:     
[CLOSE] Fri Aug 30 13:55:02 2013
[OPEN] Fri Aug 30 13:55:05 2013
[VERSION] PSI46V2 ROC/Wafer Tester V1.3 (23.08.2013)
[DTB]
Board id:    48
HW version:  DTB1.2
FW version:  1.1
SW version:  1.7
USB id:      DTB_WRMT3D
MAC address: 40D855118030
Hostname:    pixelDTB048
Comment:     
[CLOSE] Fri Aug 30 13:58:14 2013
[OPEN] Fri Aug 30 13:59:18 2013
[VERSION] PSI46V2 ROC/Wafer Tester V1.3 (23.08.2013)
[DTB]
Board id:    41
HW version:  DTB1.2
FW version:  1.1
SW version:  1.7
USB id:      DTB_WRMLUE
MAC address: 40D855118029
Hostname:    pixelDTB041
Comment:     
[CLOSE] Fri Aug 30 14:02:01 2013
[OPEN] Fri Aug 30 14:04:04 2013
[VERSION] PSI46V2 ROC/Wafer Tester V1.3 (23.08.2013)
[DTB]
Board id:    64
HW version:  DTB1.2
FW version:  1.1
SW version:  1.7
USB id:      DTB_WRQ0UZ
MAC address: 40D855118040
Hostname:    pixelDTB064
Comment:     
[CLOSE] Fri Aug 30 14:07:04 2013
[OPEN] Fri Aug 30 14:08:21 2013
[VERSION] PSI46V2 ROC/Wafer Tester V1.3 (23.08.2013)
[DTB]
Board id:    35
HW version:  DTB1.2
FW version:  1.1
SW version:  1.7
USB id:      DTB_WRENKE
MAC address: 40D855118023
Hostname:    pixelDTB035
Comment:     
[CLOSE] Fri Aug 30 14:10:46 2013
[OPEN] Fri Aug 30 14:12:09 2013
[VERSION] PSI46V2 ROC/Wafer Tester V1.3 (23.08.2013)
[DTB]
Board id:    28
HW version:  DTB1.2
FW version:  1.1
SW version:  1.7
USB id:      DTB_WREEXI
MAC address: 40D85511801C
Hostname:    pixelDTB028
Comment:     
[CLOSE] Fri Aug 30 14:14:55 2013
[OPEN] Fri Aug 30 14:15:55 2013
[VERSION] PSI46V2 ROC/Wafer Tester V1.3 (23.08.2013)
[DTB]
Board id:    56
HW version:  DTB1.2
FW version:  1.1
SW version:  1.7
USB id:      DTB_WRPPWX
MAC address: 40D855118038
Hostname:    pixelDTB056
Comment:     
[CLOSE] Fri Aug 30 14:19:48 2013
[OPEN] Fri Aug 30 14:19:50 2013
[VERSION] PSI46V2 ROC/Wafer Tester V1.3 (23.08.2013)
[DTB]
Board id:    47
HW version:  DTB1.2
FW version:  1.1
SW version:  1.7
USB id:      DTB_WRMS4N
MAC address: 40D85511802F
Hostname:    pixelDTB047
Comment:     
[CLOSE] Fri Aug 30 14:22:34 2013
[OPEN] Fri Aug 30 14:25:11 2013
[VERSION] PSI46V2 ROC/Wafer Tester V1.3 (23.08.2013)
[DTB]
Board id:    43
HW version:  DTB1.2
FW version:  1.1
SW version:  1.7
USB id:      DTB_WRMNMR
MAC address: 40D85511802B
Hostname:    pixelDTB043
Comment:     
[CLOSE] Fri Aug 30 14:28:07 2013
[OPEN] Fri Aug 30 14:29:19 2013
[VERSION] PSI46V2 ROC/Wafer Tester V1.3 (23.08.2013)
[DTB]
Board id:    44
HW version:  DTB1.2
FW version:  1.1
SW version:  1.7
USB id:      DTB_WRMOQG
MAC address: 40D85511802C
Hostname:    pixelDTB044
Comment:     
[CLOSE] Fri Aug 30 14:31:56 2013
[OPEN] Fri Aug 30 14:38:04 2013
[VERSION] PSI46V2 ROC/Wafer Tester V1.3 (23.08.2013)
[DTB]
Board id:    25
HW version:  DTB1.2
FW version:  1.1
SW version:  1.7
USB id:      DTB_WRE8QZ
MAC address: 40D855118019
Hostname:    pixelDTB025
Comment:     
[CLOSE] Fri Aug 30 14:41:38 2013
[OPEN] Fri Aug 30 14:41:40 2013
[VERSION] PSI46V2 ROC/Wafer Tester V1.3 (23.08.2013)
[DTB]
Board id:    30
HW version:  DTB1.2
FW version:  1.1
SW version:  1.7
USB id:      DTB_WREHUL
MAC address: 40D85511801E
Hostname:    pixelDTB030
Comment:     
[CLOSE] Fri Aug 30 14:45:45 2013
[OPEN] Fri Aug 30 14:45:48 2013
[VERSION] PSI46V2 ROC/Wafer Tester V1.3 (23.08.2013)
[DTB]
Board id:    50
HW version:  DTB1.2
FW version:  1.1
SW version:  1.7
USB id:      DTB_WRMW2V
MAC address: 40D855118032
Hostname:    pixelDTB050
Comment:     
[CLOSE] Fri Aug 30 14:48:22 2013
[OPEN] Fri Aug 30 14:49:26 2013
[VERSION] PSI46V2 ROC/Wafer Tester V1.3 (23.08.2013)
[DTB]
Board id:    57
HW version:  DTB1.2
FW version:  1.1
SW version:  1.7
USB id:      DTB_WRPQJV
MAC address: 40D855118039
Hostname:    pixelDTB057
Comment:     
[CLOSE] Fri Aug 30 14:52:48 2013
[OPEN] Fri Aug 30 14:52:52 2013
[VERSION] PSI46V2 ROC/Wafer Tester V1.3 (23.08.2013)
[DTB]
Board id:    33
HW version:  DTB1.2
FW version:  1.1
SW version:  1.7
USB id:      DTB_WREKRL
MAC address: 40D855118021
Hostname:    pixelDTB033
Comment:     
[CLOSE] Fri Aug 30 14:56:19 2013
[OPEN] Fri Aug 30 14:56:22 2013
[VERSION] PSI46V2 ROC/Wafer Tester V1.3 (23.08.2013)
[DTB]
Board id:    58
HW version:  DTB1.2
FW version:  1.1
SW version:  1.7
USB id:      DTB_WRPRHI
MAC address: 40D85511803A
Hostname:    pixelDTB058
Comment:     
[CLOSE] Fri Aug 30 14:59:43 2013
[OPEN] Fri Aug 30 14:59:47 2013
[VERSION] PSI46V2 ROC/Wafer Tester V1.3 (23.08.2013)
[DTB]
Board id:    16
HW version:  DTB1.2
FW version:  1.1
SW version:  1.7
USB id:      DTB_WR8LGD
MAC address: 40D855118010
Hostname:    pixelDTB016
Comment:     
[CLOSE] Fri Aug 30 15:01:56 2013
[OPEN] Fri Aug 30 15:14:13 2013
[VERSION] PSI46V2 ROC/Wafer Tester V1.3 (23.08.2013)
[DTB]
Board id:    52
HW version:  DTB1.2
FW version:  1.1
SW version:  1.7
USB id:      DTB_WRMYK0
MAC address: 40D855118034
Hostname:    pixelDTB052
Comment:     
[CLOSE] Fri Aug 30 15:16:56 2013
[OPEN] Fri Aug 30 15:18:29 2013
[VERSION] PSI46V2 ROC/Wafer Tester V1.3 (23.08.2013)
[DTB]
Board id:    29
HW version:  DTB1.2
FW version:  1.1
SW version:  1.7
USB id:      DTB_WREGK0
MAC address: 40D85511801D
Hostname:    pixelDTB029
Comment:     
[CLOSE] Fri Aug 30 15:21:39 2013
[OPEN] Fri Aug 30 17:18:54 2013
[VERSION] PSI46V2 ROC/Wafer Tester V1.3 (23.08.2013)
[DTB]
Board id:    37
HW version:  DTB1.2
FW version:  1.1
SW version:  1.7
USB id:      DTB_WRMIFT
MAC address: 40D855118025
Hostname:    pixelDTB037
Comment:     
[CLOSE] Fri Aug 30 17:19:03 2013
[OPEN] Fri Aug 30 17:45:13 2013
[VERSION] PSI46V2 ROC/Wafer Tester V1.3 (23.08.2013)
[DTB]
Board id:    22
HW version:  DTB1.2
FW version:  1.1
SW version:  1.7
USB id:      DTB_WRE4TS
MAC address: 40D855118016
Hostname:    pixelDTB022
Comment:     
[CLOSE] Fri Aug 30 17:47:33 2013
