[OPEN] Fri Aug 30 13:37:54 2013
[VERSION] PSI46V2 ROC/Wafer Tester V1.3 (23.08.2013)
[DTB]
Board id:    26
HW version:  DTB1.2
FW version:  1.1
SW version:  1.7
USB id:      DTB_WRECOM
MAC address: 40D85511801A
Hostname:    pixelDTB026
Comment:     
[CLOSE] Fri Aug 30 13:44:38 2013
[OPEN] Fri Aug 30 13:44:58 2013
[VERSION] PSI46V2 ROC/Wafer Tester V1.3 (23.08.2013)
[DTB]
Board id:    9
HW version:  DTB1.1
FW version:  1.1
SW version:  1.7
USB id:      DTB_WQSUMF
MAC address: 40D855118009
Hostname:    pixelDTB009
Comment:     Prototype 2 - compatible
[CLOSE] Fri Aug 30 13:49:07 2013
[OPEN] Fri Aug 30 13:49:10 2013
[VERSION] PSI46V2 ROC/Wafer Tester V1.3 (23.08.2013)
[DTB]
Board id:    61
HW version:  DTB1.2
FW version:  1.1
SW version:  1.7
USB id:      DTB_WRPUCV
MAC address: 40D85511803D
Hostname:    pixelDTB061
Comment:     
[CLOSE] Fri Aug 30 13:55:02 2013
[OPEN] Fri Aug 30 13:55:05 2013
[VERSION] PSI46V2 ROC/Wafer Tester V1.3 (23.08.2013)
[DTB]
Board id:    48
HW version:  DTB1.2
FW version:  1.1
SW version:  1.7
USB id:      DTB_WRMT3D
MAC address: 40D855118030
Hostname:    pixelDTB048
Comment:     
[CLOSE] Fri Aug 30 13:58:14 2013
[OPEN] Fri Aug 30 13:59:18 2013
[VERSION] PSI46V2 ROC/Wafer Tester V1.3 (23.08.2013)
[DTB]
Board id:    41
HW version:  DTB1.2
FW version:  1.1
SW version:  1.7
USB id:      DTB_WRMLUE
MAC address: 40D855118029
Hostname:    pixelDTB041
Comment:     
[CLOSE] Fri Aug 30 14:02:01 2013
[OPEN] Fri Aug 30 14:04:04 2013
[VERSION] PSI46V2 ROC/Wafer Tester V1.3 (23.08.2013)
[DTB]
Board id:    64
HW version:  DTB1.2
FW version:  1.1
SW version:  1.7
USB id:      DTB_WRQ0UZ
MAC address: 40D855118040
Hostname:    pixelDTB064
Comment:     
[CLOSE] Fri Aug 30 14:07:04 2013
[OPEN] Fri Aug 30 14:08:21 2013
[VERSION] PSI46V2 ROC/Wafer Tester V1.3 (23.08.2013)
[DTB]
Board id:    35
HW version:  DTB1.2
FW version:  1.1
SW version:  1.7
USB id:      DTB_WRENKE
MAC address: 40D855118023
Hostname:    pixelDTB035
Comment:     
[CLOSE] Fri Aug 30 14:10:46 2013
[OPEN] Fri Aug 30 14:12:09 2013
[VERSION] PSI46V2 ROC/Wafer Tester V1.3 (23.08.2013)
[DTB]
Board id:    28
HW version:  DTB1.2
FW version:  1.1
SW version:  1.7
USB id:      DTB_WREEXI
MAC address: 40D85511801C
Hostname:    pixelDTB028
Comment:     
[CLOSE] Fri Aug 30 14:14:55 2013
[OPEN] Fri Aug 30 14:15:55 2013
[VERSION] PSI46V2 ROC/Wafer Tester V1.3 (23.08.2013)
[DTB]
Board id:    56
HW version:  DTB1.2
FW version:  1.1
SW version:  1.7
USB id:      DTB_WRPPWX
MAC address: 40D855118038
Hostname:    pixelDTB056
Comment:     
[CLOSE] Fri Aug 30 14:19:48 2013
[OPEN] Fri Aug 30 14:19:50 2013
[VERSION] PSI46V2 ROC/Wafer Tester V1.3 (23.08.2013)
[DTB]
Board id:    47
HW version:  DTB1.2
FW version:  1.1
SW version:  1.7
USB id:      DTB_WRMS4N
MAC address: 40D85511802F
Hostname:    pixelDTB047
Comment:     
[CLOSE] Fri Aug 30 14:22:34 2013
