id  HWver   FWver SWver USB id     MAC address        hostname    location comments
--- ------- ----- ----- ---------- -----------------  ----------- -------- -------------------------------------------------------------------------------------------------------
  8  DTB1.1             DTB_WQSTXY 40:D8:55:11:80:08  pixelDTB008 UNL      Prototype 2 - compatible; LVDS translator chip defunct, for testing purposes only. Property of PSI 
  9  DTB1.1   1.1   1.7 DTB_WQSUMF 40:D8:55:11:80:09  pixelDTB009 UNL      Prototype, CMOS Buffer inserted by PSI
 16  DTB1.2   1.1   1.7 DTB_WR8LGD 40:D8:55:11:80:10  pixelDTB016 UNL      CMOS Buffer inserted by ETH
 19  DTB1.2   1.1   1.7 DTB_WRBVG4 40:D8:55:11:80:13  pixelDTB019 FNAL     CMOS Buffer inserted by ETH, early delivery to FNAL
 21  DTB1.2   1.1   1.7 DTB_WRE2WB 40:D8:55:11:80:15  pixelDTB021 FNAL     CMOS Buffer inserted by ETH, early delivery to FNAL
 22  DTB1.2   1.1   1.7 DTB_WRE4TS 40:D8:55:11:80:16  pixelDTB022 UNL      CMOS Buffer inserted by ETH, early delivery to UNL
 25  DTB1.2   1.1   1.7 DTB_WRE8QZ 40:D8:55:11:80:19  pixelDTB025 FNAL
 26  DTB1.2   1.1   1.7 DTB_WRECOM 40:D8:55:11:80:1A  pixelDTB026 UNL      CMOS Buffer inserted by ETH, early delivery to UNL
 28  DTB1.2   1.1   1.7 DTB_WREEXI 40:D8:55:11:80:1C  pixelDTB028 FNAL
 29  DTB1.2   1.1   1.7 DTB_WREGK0 40:D8:55:11:80:1D  pixelDTB029 UIC
 30  DTB1.2   1.1   1.7 DTB_WREHUL 40:D8:55:11:80:1E  pixelDTB030 UIC
 33  DTB1.2   1.1   1.7 DTB_WREKRL 40:D8:55:11:80:21  pixelDTB033 UIC
 35  DTB1.2   1.1   1.7 DTB_WRENKE 40:D8:55:11:80:23  pixelDTB035 UIC
 37  DTB1.2   1.1   1.7 DTB_WRMIFT 40:D8:55:11:80:25  pixelDTB037 UIC      SDcard empty on delivery, initialized and ok now
 41  DTB1.2   1.1   1.7 DTB_WRMLUE 40:D8:55:11:80:29  pixelDTB041 KU
 43  DTB1.2   1.1   1.7 DTB_WRMNMR 40:D8:55:11:80:2B  pixelDTB043 KU
 44  DTB1.2   1.1   1.7 DTB_WRMOQG 40:D8:55:11:80:2C  pixelDTB044 Purdue
 47  DTB1.2   1.1   1.7 DTB_WRMS4N 40:D8:55:11:80:2F  pixelDTB047 Purdue
 48  DTB1.2   1.1   1.7 DTB_WRMT3D 40:D8:55:11:80:30  pixelDTB048 Purdue
 50  DTB1.2   1.1   1.7 DTB_WRMW2V 40:D8:55:11:80:32  pixelDTB050 Purdue
 51  DTB1.2   1.1   1.7 DTB_WRMXDL 40:D8:55:11:80:33  pixelDTB051 Rice/TIF
 52  DTB1.2   1.1   1.7 DTB_WRMYK0 40:D8:55:11:80:34  pixelDTB052 UNLstock
 54  DTB1.2   1.1   1.7 DTB_WRNOOS 40:D8:55:11:80:36  pixelDTB054 Rice/TIF
 56  DTB1.2   1.1   1.7 DTB_WRPPWX 40:D8:55:11:80:38  pixelDTB056 UNLstock
 57  DTB1.2   1.1   1.7 DTB_WRPQJV 40:D8:55:11:80:39  pixelDTB057 UNLstock
 58  DTB1.2   1.1   1.7 DTB_WRPRHI 40:D8:55:11:80:3A  pixelDTB058 KU
 61  DTB1.2   1.1   1.7 DTB_WRPUCV 40:D8:55:11:80:3D  pixelDTB061 KU
 64  DTB1.2   1.1   1.7 DTB_WRQ0UZ 40:D8:55:11:80:40  pixelDTB064 UNLstock
